Written by BCL::WriteToMDL,set1_3_ligand.pdb
  MOE2012           3D

 24 24  0  0  0  0  0  0  0  0999 V2000
    4.7640   42.0550   25.6370 C   0  0  0  1  0  4  0  0  0  0  0  0
    3.6720   41.1930   25.0060 C   0  0  0  1  0  4  0  0  0  0  0  0
    3.0880   40.2510   26.0630 C   0  0  0  1  0  4  0  0  0  0  0  0
    4.2050   39.4170   26.6960 C   0  0  0  1  0  4  0  0  0  0  0  0
    5.2680   40.3600   27.2700 C   0  0  0  1  0  4  0  0  0  0  0  0
    6.4520   39.6200   27.8570 C   0  0  0  1  0  4  0  0  0  0  0  0
    4.2100   42.8460   26.6330 O   0  0  0  1  0  2  0  0  0  0  0  0
    4.2230   40.4340   23.9410 O   0  0  0  1  0  2  0  0  0  0  0  0
    2.1260   39.4080   25.4630 O   0  0  0  1  0  2  0  0  0  0  0  0
    3.6760   38.6030   27.7360 O   0  0  0  1  0  2  0  0  0  0  0  0
    5.7810   41.2210   26.2280 O   0  0  0  1  0  2  0  0  0  0  0  0
    7.1650   38.9340   26.8380 O   0  0  0  1  0  2  0  0  0  0  0  0
    5.2084   42.6772   24.8602 H   0  0  0  1  0  1  0  0  0  0  0  0
    2.8806   41.8351   24.6193 H   0  0  0  1  0  1  0  0  0  0  0  0
    2.6081   40.8384   26.8458 H   0  0  0  1  0  1  0  0  0  0  0  0
    4.6515   38.7733   25.9382 H   0  0  0  1  0  1  0  0  0  0  0  0
    4.7741   40.9269   28.0592 H   0  0  0  1  0  1  0  0  0  0  0  0
    6.0954   38.8990   28.5926 H   0  0  0  1  0  1  0  0  0  0  0  0
    7.1174   40.3348   28.3411 H   0  0  0  1  0  1  0  0  0  0  0  0
    4.7055   42.6647   27.5408 H   0  0  0  1  0  1  0  0  0  0  0  0
    5.0038   40.9928   23.5160 H   0  0  0  1  0  1  0  0  0  0  0  0
    1.1938   39.5572   25.9227 H   0  0  0  1  0  1  0  0  0  0  0  0
    4.4083   38.4578   28.4743 H   0  0  0  1  0  1  0  0  0  0  0  0
    8.1921   39.1284   26.9372 H   0  0  0  1  0  1  0  0  0  0  0  0
  1  2  1  0  0  0  0
  1  7  1  0  0  0  0
  1 11  1  0  0  0  0
  1 13  1  0  0  0  0
  2  3  1  0  0  0  0
  2  8  1  0  0  0  0
  2 14  1  0  0  0  0
  3  4  1  0  0  0  0
  3  9  1  0  0  0  0
  3 15  1  0  0  0  0
  4  5  1  0  0  0  0
  4 10  1  0  0  0  0
  4 16  1  0  0  0  0
  5  6  1  0  0  0  0
  5 11  1  0  0  0  0
  5 17  1  0  0  0  0
  6 12  1  0  0  0  0
  6 18  1  0  0  0  0
  6 19  1  0  0  0  0
  7 20  1  0  0  0  0
  8 21  1  0  0  0  0
  9 22  1  0  0  0  0
 10 23  1  0  0  0  0
 12 24  1  0  0  0  0
M  END
$$$$
Written by BCL::WriteToMDL,set1_3_ligand.pdb
  MOE2012           3D

 24 24  0  0  0  0  0  0  0  0999 V2000
    4.7640   42.0550   25.6370 C   0  0  0  1  0  4  0  0  0  0  0  0
    3.6720   41.1930   25.0060 C   0  0  0  1  0  4  0  0  0  0  0  0
    3.0880   40.2510   26.0630 C   0  0  0  1  0  4  0  0  0  0  0  0
    4.2050   39.4170   26.6960 C   0  0  0  1  0  4  0  0  0  0  0  0
    5.2680   40.3600   27.2700 C   0  0  0  1  0  4  0  0  0  0  0  0
    6.4520   39.6200   27.8570 C   0  0  0  1  0  4  0  0  0  0  0  0
    4.2100   42.8460   26.6330 O   0  0  0  1  0  2  0  0  0  0  0  0
    4.2230   40.4340   23.9410 O   0  0  0  1  0  2  0  0  0  0  0  0
    2.1260   39.4080   25.4630 O   0  0  0  1  0  2  0  0  0  0  0  0
    3.6760   38.6030   27.7360 O   0  0  0  1  0  2  0  0  0  0  0  0
    5.7810   41.2210   26.2280 O   0  0  0  1  0  2  0  0  0  0  0  0
    7.3335   40.5258   28.5048 O   0  0  0  1  0  2  0  0  0  0  0  0
    5.2084   42.6772   24.8602 H   0  0  0  1  0  1  0  0  0  0  0  0
    2.8806   41.8351   24.6193 H   0  0  0  1  0  1  0  0  0  0  0  0
    2.6081   40.8384   26.8458 H   0  0  0  1  0  1  0  0  0  0  0  0
    4.6515   38.7733   25.9382 H   0  0  0  1  0  1  0  0  0  0  0  0
    4.7741   40.9269   28.0592 H   0  0  0  1  0  1  0  0  0  0  0  0
    6.9876   39.1086   27.0572 H   0  0  0  1  0  1  0  0  0  0  0  0
    6.0942   38.8881   28.5812 H   0  0  0  1  0  1  0  0  0  0  0  0
    4.7055   42.6647   27.5408 H   0  0  0  1  0  1  0  0  0  0  0  0
    5.0038   40.9928   23.5160 H   0  0  0  1  0  1  0  0  0  0  0  0
    1.1938   39.5572   25.9227 H   0  0  0  1  0  1  0  0  0  0  0  0
    4.4083   38.4578   28.4743 H   0  0  0  1  0  1  0  0  0  0  0  0
    7.4555   40.2395   29.5076 H   0  0  0  1  0  1  0  0  0  0  0  0
  1  2  1  0  0  0  0
  1  7  1  0  0  0  0
  1 11  1  0  0  0  0
  1 13  1  0  0  0  0
  2  3  1  0  0  0  0
  2  8  1  0  0  0  0
  2 14  1  0  0  0  0
  3  4  1  0  0  0  0
  3  9  1  0  0  0  0
  3 15  1  0  0  0  0
  4  5  1  0  0  0  0
  4 10  1  0  0  0  0
  4 16  1  0  0  0  0
  5  6  1  0  0  0  0
  5 11  1  0  0  0  0
  5 17  1  0  0  0  0
  6 12  1  0  0  0  0
  6 18  1  0  0  0  0
  6 19  1  0  0  0  0
  7 20  1  0  0  0  0
  8 21  1  0  0  0  0
  9 22  1  0  0  0  0
 10 23  1  0  0  0  0
 12 24  1  0  0  0  0
M  END
> <ConfScore>
-0.724206 

$$$$
Written by BCL::WriteToMDL,set1_3_ligand.pdb
  MOE2012           3D

 24 24  0  0  0  0  0  0  0  0999 V2000
    3.9815   -0.7801   11.0489 C   0  0  0  1  0  4  0  0  0  0  0  0
    3.1373   -1.8216   11.7704 C   0  0  0  1  0  4  0  0  0  0  0  0
    1.7303   -1.3140   11.9837 C   0  0  0  1  0  4  0  0  0  0  0  0
    1.7595    0.0459   12.7088 C   0  0  0  1  0  4  0  0  0  0  0  0
    2.6421    0.9998   11.9232 C   0  0  0  1  0  4  0  0  0  0  0  0
    2.7215    2.3222   12.6573 C   0  0  0  1  0  4  0  0  0  0  0  0
    3.4638   -0.5711    9.7789 O   0  0  0  1  0  2  0  0  0  0  0  0
    3.7255   -2.1065   13.0300 O   0  0  0  1  0  2  0  0  0  0  0  0
    1.0121   -2.2451   12.7669 O   0  0  0  1  0  2  0  0  0  0  0  0
    2.2517   -0.1251   14.0345 O   0  0  0  1  0  2  0  0  0  0  0  0
    3.9704    0.4603   11.7757 O   0  0  0  1  0  2  0  0  0  0  0  0
    1.9409    3.3067   11.9949 O   0  0  0  1  0  2  0  0  0  0  0  0
    5.0075   -1.1413   10.9787 H   0  0  0  1  0  1  0  0  0  0  0  0
    3.0957   -2.7234   11.1596 H   0  0  0  1  0  1  0  0  0  0  0  0
    1.2459   -1.1904   11.0151 H   0  0  0  1  0  1  0  0  0  0  0  0
    0.7534    0.4605   12.7720 H   0  0  0  1  0  1  0  0  0  0  0  0
    2.2097    1.1422   10.9328 H   0  0  0  1  0  1  0  0  0  0  0  0
    3.7600    2.6515   12.6917 H   0  0  0  1  0  1  0  0  0  0  0  0
    2.3474    2.1916   13.6728 H   0  0  0  1  0  1  0  0  0  0  0  0
    2.4819   -0.7976   10.0739 H   0  0  0  1  0  1  0  0  0  0  0  0
    3.6930   -1.2484   13.6342 H   0  0  0  1  0  1  0  0  0  0  0  0
    0.2304   -1.7535   13.2667 H   0  0  0  1  0  1  0  0  0  0  0  0
    2.4645    0.8140   14.4532 H   0  0  0  1  0  1  0  0  0  0  0  0
    2.3839    4.2500   12.1234 H   0  0  0  1  0  1  0  0  0  0  0  0
  1  2  1  0  0  0  0
  1  7  1  0  0  0  0
  1 11  1  0  0  0  0
  1 13  1  0  0  0  0
  2  3  1  0  0  0  0
  2  8  1  0  0  0  0
  2 14  1  0  0  0  0
  3  4  1  0  0  0  0
  3  9  1  0  0  0  0
  3 15  1  0  0  0  0
  4  5  1  0  0  0  0
  4 10  1  0  0  0  0
  4 16  1  0  0  0  0
  5  6  1  0  0  0  0
  5 11  1  0  0  0  0
  5 17  1  0  0  0  0
  6 12  1  0  0  0  0
  6 18  1  0  0  0  0
  6 19  1  0  0  0  0
  7 20  1  0  0  0  0
  8 21  1  0  0  0  0
  9 22  1  0  0  0  0
 10 23  1  0  0  0  0
 12 24  1  0  0  0  0
M  END
> <ConfScore>
-0.462416 

$$$$
Written by BCL::WriteToMDL,set1_3_ligand.pdb
  MOE2012           3D

 24 24  0  0  0  0  0  0  0  0999 V2000
    4.2887    9.4573    3.3614 C   0  0  0  1  0  4  0  0  0  0  0  0
    4.6917   10.8987    3.6664 C   0  0  0  1  0  4  0  0  0  0  0  0
    3.7514   11.4873    4.7059 C   0  0  0  1  0  4  0  0  0  0  0  0
    3.6780   10.5890    5.9432 C   0  0  0  1  0  4  0  0  0  0  0  0
    3.2806    9.1811    5.5009 C   0  0  0  1  0  4  0  0  0  0  0  0
    1.9142    9.2270    4.8491 C   0  0  0  1  0  4  0  0  0  0  0  0
    5.2130    8.9042    2.4872 O   0  0  0  1  0  2  0  0  0  0  0  0
    4.6287   11.6554    2.4530 O   0  0  0  1  0  2  0  0  0  0  0  0
    4.1912   12.7984    5.0429 O   0  0  0  1  0  2  0  0  0  0  0  0
    4.9423   10.5271    6.6011 O   0  0  0  1  0  2  0  0  0  0  0  0
    4.2458    8.6705    4.5539 O   0  0  0  1  0  2  0  0  0  0  0  0
    1.9885    9.8641    3.5818 O   0  0  0  1  0  2  0  0  0  0  0  0
    3.2942    9.4634    2.9152 H   0  0  0  1  0  1  0  0  0  0  0  0
    5.7059   10.9292    4.0645 H   0  0  0  1  0  1  0  0  0  0  0  0
    2.7447   11.5478    4.2924 H   0  0  0  1  0  1  0  0  0  0  0  0
    2.9440   11.0003    6.6362 H   0  0  0  1  0  1  0  0  0  0  0  0
    3.2525    8.5265    6.3720 H   0  0  0  1  0  1  0  0  0  0  0  0
    1.2297    9.7826    5.4901 H   0  0  0  1  0  1  0  0  0  0  0  0
    1.5451    8.2098    4.7179 H   0  0  0  1  0  1  0  0  0  0  0  0
    6.1168    8.7343    2.9940 H   0  0  0  1  0  1  0  0  0  0  0  0
    5.5939   11.7556    2.0519 H   0  0  0  1  0  1  0  0  0  0  0  0
    4.9929   12.7364    5.7181 H   0  0  0  1  0  1  0  0  0  0  0  0
    4.7945   10.4135    7.6344 H   0  0  0  1  0  1  0  0  0  0  0  0
    2.9750   10.1767    3.4040 H   0  0  0  1  0  1  0  0  0  0  0  0
  1  2  1  0  0  0  0
  1  7  1  0  0  0  0
  1 11  1  0  0  0  0
  1 13  1  0  0  0  0
  2  3  1  0  0  0  0
  2  8  1  0  0  0  0
  2 14  1  0  0  0  0
  3  4  1  0  0  0  0
  3  9  1  0  0  0  0
  3 15  1  0  0  0  0
  4  5  1  0  0  0  0
  4 10  1  0  0  0  0
  4 16  1  0  0  0  0
  5  6  1  0  0  0  0
  5 11  1  0  0  0  0
  5 17  1  0  0  0  0
  6 12  1  0  0  0  0
  6 18  1  0  0  0  0
  6 19  1  0  0  0  0
  7 20  1  0  0  0  0
  8 21  1  0  0  0  0
  9 22  1  0  0  0  0
 10 23  1  0  0  0  0
 12 24  1  0  0  0  0
M  END
> <ConfScore>
0.768455 

$$$$
Written by BCL::WriteToMDL,set1_3_ligand.pdb
  MOE2012           3D

 24 24  0  0  0  0  0  0  0  0999 V2000
   -0.0577   17.2739   40.1752 C   0  0  0  1  0  4  0  0  0  0  0  0
   -0.9207   16.7506   41.3010 C   0  0  0  1  0  4  0  0  0  0  0  0
   -0.5848   15.3186   41.7411 C   0  0  0  1  0  4  0  0  0  0  0  0
    0.9171   15.2445   41.9912 C   0  0  0  1  0  4  0  0  0  0  0  0
    1.7130   15.7455   40.8100 C   0  0  0  1  0  4  0  0  0  0  0  0
    3.1962   15.7946   41.0918 C   0  0  0  1  0  4  0  0  0  0  0  0
   -0.3766   16.5919   39.0099 O   0  0  0  1  0  2  0  0  0  0  0  0
   -2.2700   16.7782   40.8746 O   0  0  0  1  0  2  0  0  0  0  0  0
   -0.7886   14.3692   40.6727 O   0  0  0  1  0  2  0  0  0  0  0  0
    1.2926   13.9067   42.3225 O   0  0  0  1  0  2  0  0  0  0  0  0
    1.3120   17.0988   40.4458 O   0  0  0  1  0  2  0  0  0  0  0  0
    3.6375   17.1445   41.0755 O   0  0  0  1  0  2  0  0  0  0  0  0
   -0.2494   18.3415   40.0676 H   0  0  0  1  0  1  0  0  0  0  0  0
   -0.7351   17.3934   42.1615 H   0  0  0  1  0  1  0  0  0  0  0  0
   -1.2105   15.0919   42.6043 H   0  0  0  1  0  1  0  0  0  0  0  0
    1.1469   15.8990   42.8320 H   0  0  0  1  0  1  0  0  0  0  0  0
    1.5115   15.0401   40.0038 H   0  0  0  1  0  1  0  0  0  0  0  0
    3.7298   15.2290   40.3280 H   0  0  0  1  0  1  0  0  0  0  0  0
    3.3942   15.3597   42.0715 H   0  0  0  1  0  1  0  0  0  0  0  0
   -1.3028   16.1967   39.3072 H   0  0  0  1  0  1  0  0  0  0  0  0
   -2.6038   17.7728   40.8320 H   0  0  0  1  0  1  0  0  0  0  0  0
   -1.2319   13.5566   41.1683 H   0  0  0  1  0  1  0  0  0  0  0  0
    2.2776   13.8990   42.6862 H   0  0  0  1  0  1  0  0  0  0  0  0
    4.6440   17.1879   41.3715 H   0  0  0  1  0  1  0  0  0  0  0  0
  1  2  1  0  0  0  0
  1  7  1  0  0  0  0
  1 11  1  0  0  0  0
  1 13  1  0  0  0  0
  2  3  1  0  0  0  0
  2  8  1  0  0  0  0
  2 14  1  0  0  0  0
  3  4  1  0  0  0  0
  3  9  1  0  0  0  0
  3 15  1  0  0  0  0
  4  5  1  0  0  0  0
  4 10  1  0  0  0  0
  4 16  1  0  0  0  0
  5  6  1  0  0  0  0
  5 11  1  0  0  0  0
  5 17  1  0  0  0  0
  6 12  1  0  0  0  0
  6 18  1  0  0  0  0
  6 19  1  0  0  0  0
  7 20  1  0  0  0  0
  8 21  1  0  0  0  0
  9 22  1  0  0  0  0
 10 23  1  0  0  0  0
 12 24  1  0  0  0  0
M  END
> <ConfScore>
0.406186 

$$$$
Written by BCL::WriteToMDL,set1_8_ligand.pdb
  MOE2012           3D

 29 30  0  0  0  0  0  0  0  0999 V2000
   20.0830   34.2930  112.2200 C   0  0  0  1  0  4  0  0  0  0  0  0
   20.7070   34.5890  110.8970 C   0  0  0  1  0  4  0  0  0  0  0  0
   21.9780   35.5440  111.0290 C   0  0  0  1  0  4  0  0  0  0  0  0
   22.3490   35.9910  112.4640 C   0  0  0  1  0  4  0  0  0  0  0  0
   22.1740   34.8880  113.5380 C   0  0  0  1  0  4  0  0  0  0  0  0
   21.9750   35.3560  115.0110 C   0  0  0  1  0  4  0  0  0  0  0  0
   21.0120   33.3270  110.2660 O   0  0  0  1  0  2  0  0  0  0  0  0
   21.7080   36.7660  110.3030 O   0  0  0  1  0  2  0  0  0  0  0  0
   23.7120   36.4430  112.5220 O   0  0  0  1  0  2  0  0  0  0  0  0
   22.5080   36.6620  115.3030 O   0  0  0  1  0  2  0  0  0  0  0  0
   21.0370   33.9920  113.2870 N   0  3  0  1  0  4  0  0  0  0  0  0
   20.4420   35.2890  115.1520 C   0  0  0  1  0  4  0  0  0  0  0  0
   20.2730   33.8860  114.5330 C   0  0  0  1  0  4  0  0  0  0  0  0
   19.4237   33.4333  112.1005 H   0  0  0  1  0  1  0  0  0  0  0  0
   19.4975   35.1614  112.5220 H   0  0  0  1  0  1  0  0  0  0  0  0
   20.0119   35.1474  110.2700 H   0  0  0  1  0  1  0  0  0  0  0  0
   22.8070   34.9480  110.6473 H   0  0  0  1  0  1  0  0  0  0  0  0
   21.6500   36.7960  112.6909 H   0  0  0  1  0  1  0  0  0  0  0  0
   23.1409   34.3947  113.4384 H   0  0  0  1  0  1  0  0  0  0  0  0
   22.5202   34.7387  115.7250 H   0  0  0  1  0  1  0  0  0  0  0  0
   21.9720   33.0141  110.5541 H   0  0  0  1  0  1  0  0  0  0  0  0
   22.5615   37.3775  110.3164 H   0  0  0  1  0  1  0  0  0  0  0  0
   23.7321   37.4921  112.5594 H   0  0  0  1  0  1  0  0  0  0  0  0
   23.5349   36.5838  115.5075 H   0  0  0  1  0  1  0  0  0  0  0  0
   21.5160   33.1013  112.9376 H   0  0  0  1  0  1  0  0  0  0  0  0
   19.9340   36.0642  114.5784 H   0  0  0  1  0  1  0  0  0  0  0  0
   20.1143   35.3312  116.1907 H   0  0  0  1  0  1  0  0  0  0  0  0
   20.6874   33.1163  115.1842 H   0  0  0  1  0  1  0  0  0  0  0  0
   19.2238   33.6678  114.3337 H   0  0  0  1  0  1  0  0  0  0  0  0
  1  2  1  0  0  0  0
  1 11  1  0  0  0  0
  1 14  1  0  0  0  0
  1 15  1  0  0  0  0
  2  3  1  0  0  0  0
  2  7  1  0  0  0  0
  2 16  1  0  0  0  0
  3  4  1  0  0  0  0
  3  8  1  0  0  0  0
  3 17  1  0  0  0  0
  4  5  1  0  0  0  0
  4  9  1  0  0  0  0
  4 18  1  0  0  0  0
  5  6  1  0  0  0  0
  5 11  1  0  0  0  0
  5 19  1  0  0  0  0
  6 10  1  0  0  0  0
  6 12  1  0  0  0  0
  6 20  1  0  0  0  0
  7 21  1  0  0  0  0
  8 22  1  0  0  0  0
  9 23  1  0  0  0  0
 10 24  1  0  0  0  0
 11 13  1  0  0  0  0
 11 25  1  0  0  0  0
 12 13  1  0  0  0  0
 12 26  1  0  0  0  0
 12 27  1  0  0  0  0
 13 28  1  0  0  0  0
 13 29  1  0  0  0  0
M  END
$$$$